THALLIUM
THALLOPHYTE
THAN
THANK
THANKED
THANKFUL
THANKFULLY
THANKFULNESS
THANKING
THANKLESS
THANKLESSLY
THANKLESSNESS
THANKS
THANKSGIVING
THANKSGIVINGS
THAT
THATCH
THATCHES
THATS
THAW
THAWED
THAWING
THAWS
THEATER
THEATERS
THEATRIC
THEATRICAL
THEATRICALLY
THEATRICALS
THEE
THEFT
THEFTS
THEIR
THEIRS
THEISM
THEIST
THEM
THEMATIC
THEME
THEMES
THEMSELVES
THEN
THENCE
THENCEFORTH
THEOCRACY
THEOLOGIAN
THEOLOGICAL
THEOLOGY
THEOREM
THEOREMS
THEORETIC
THEORETICAL
THEORETICALLY
THEORETICIAN
THEORETICIANS
THEORIES
THEORIST
THEORISTS
THEORIZATION
THEORIZATIONS
THEORIZE
THEORIZED
THEORIZER
THEORIZERS
THEORIZES
THEORIZING
THEORY
THERAPEUTIC
THERAPIES
THERAPIST
THERAPISTS
THERAPY
THERE
THEREABOUTS
THEREAFTER
THEREAT
THEREBY
THEREFOR
THEREFORE
THEREFROM
THEREIN
THEREOF
THEREON
THERETO
THERETOFORE
THEREUNDER
THEREUPON
THEREWITH
THERMAL
THERMIONIC
THERMISTOR
THERMO
THERMODYNAMIC
THERMODYNAMICS
THERMOMETER
THERMOMETERS
THERMOSTAT
THERMOSTATS
THESAURUS
THESE
THESES
THESIS
THESPIAN
THETA
THEY
THIAMIN
THICK
THICKEN
THICKENS
THICKER
THICKEST
THICKET
THICKETS
THICKISH
THICKLY
THICKNESS
THIEF
THIEVE
THIEVES
THIEVING
THIGH
THIGHS
THIMBLE
THIMBLES
THIN
THINE
THING
THINGS
THINK
THINKABLE
THINKABLY
THINKER
THINKERS
THINKING
THINKS
THINLY
THINNER
THINNESS
THINNEST
THINNISH
THIOCYANATE
THIOURACIL
THIRD
THIRDLY
THIRDS
THIRST
THIRSTED
THIRSTS
THIRSTY
THIRTEEN
THIRTEENS
THIRTEENTH
THIRTIES
THIRTIETH
THIRTY
THIS
THISTLE
THISTLEDOWN
THITHER
THONG
THORIATE
THORIUM
THORN
THORNS
THORNY
THOROUGH
THOROUGHBRED
THOROUGHFARE
THOROUGHFARES
THOROUGHGOING
THOROUGHLY
THOROUGHNESS
THOSE
THOU
THOUGH
THOUGHT
THOUGHTFUL
THOUGHTFULLY
THOUGHTFULNESS
THOUGHTLESS
THOUGHTLESSLY
THOUGHTS
THOUSAND
THOUSANDFOLD
THOUSANDS
THOUSANDTH
THRALL
THRASH
THRASHED
THRASHER
THRASHES
THRASHING
THREAD
THREADBARE
THREADED
THREADER
THREADERS
THREADING
THREADS
THREAT
THREATEN
THREATENED
THREATENING
THREATENS
THREATS
THREE
THREEFOLD
THREES
THREESCORE
THREESOME
THREONINE
THRESH
THRESHOLD
THRESHOLDS
THREW
THRICE
THRIFT
THRIFTY
THRILL
THRILLED
THRILLER
THRILLERS
THRILLING
THRILLINGLY
THRILLS
THRIPS
THRIVE
THRIVED
THRIVES
THRIVING
THROAT
THROATED
THROATS
THROATY
THROB
THROBBED
THROBBING
THROBS
THROES
THROMBOSIS
THRONE
THRONES
THRONG
THRONGS
THROTTLE
THROTTLED
THROTTLES
THROTTLING
THROUGH
THROUGHOUT
THROUGHPUT
THROW
THROWAWAY
THROWBACK
THROWER
THROWING
THROWN
THROWS
THRUM
THRUSH
THRUST
THRUSTER
THRUSTERS
THRUSTING
THRUSTS
THUD
THUDS
THUG
THUGGEE
THUGS
THULIUM
THUMB
THUMBED
THUMBING
THUMBNAIL
THUMBS
THUMP
THUMPED
THUMPING
THUNDER
THUNDERBIRD
THUNDERBOLT
THUNDERBOLTS
THUNDERCLAP
THUNDERED
THUNDERER
THUNDERERS
THUNDERFLOWER
THUNDERING
THUNDEROUS
THUNDERS
THUNDERSHOWER
THUNDERSTORM
THUNDERSTORMS
THUS
THUSLY
THWACK
THWART
THWARTED
THWARTING
THWARTS
THYME
THYMINE
THYMUS
THYRATRON
THYROGLOBULIN
THYROID
THYROIDAL
THYRONINE
THYROTOXIC
THYROXINE
THYSELF
